#======================================================================

# CRYSTAL DATA

#----------------------------------------------------------------------

data_VESTA_phase_1


_pd_phase_name                         'CONTCAR\(5)                           '
_cell_length_a                         9.84000
_cell_length_b                         9.84000
_cell_length_c                         18.40000
_cell_angle_alpha                      90
_cell_angle_beta                       90
_cell_angle_gamma                      60.00000
_symmetry_space_group_name_H-M         'P 1'
_symmetry_Int_Tables_number            1

loop_
_symmetry_equiv_pos_as_xyz
   'x, y, z'

loop_
   _atom_site_label
   _atom_site_occupancy
   _atom_site_fract_x
   _atom_site_fract_y
   _atom_site_fract_z
   _atom_site_adp_type
   _atom_site_B_iso_or_equiv
   _atom_site_type_symbol
   Co1        1.0     0.549968      0.387134      0.256138     Biso  1.000000 Co
   Cu1        1.0     0.544318      0.677523      0.219878     Biso  1.000000 Cu
   C1         1.0    -0.002395      0.006912      0.188958     Biso  1.000000 C
   C2         1.0     0.086227      0.083925      0.188367     Biso  1.000000 C
   C3         1.0     0.253096      0.990377      0.190649     Biso  1.000000 C
   C4         1.0     0.338442      0.074492      0.186438     Biso  1.000000 C
   C5         1.0     0.506978     -0.003983      0.185445     Biso  1.000000 C
   C6         1.0     0.577900      0.093427      0.186175     Biso  1.000000 C
   C7         1.0     0.746591      0.015600      0.188152     Biso  1.000000 C
   C8         1.0     0.830992      0.100060      0.192662     Biso  1.000000 C
   C9         1.0     0.004930      0.252071      0.184704     Biso  1.000000 C
   C10        1.0     0.087519      0.333269      0.180607     Biso  1.000000 C
   C11        1.0     0.253893      0.244654      0.181799     Biso  1.000000 C
   C12        1.0     0.334526      0.331221      0.182141     Biso  1.000000 C
   C13        1.0     0.837228      0.341286      0.190086     Biso  1.000000 C
   C14        1.0     0.003492      0.501865      0.178754     Biso  1.000000 C
   C15        1.0     0.083050      0.587910      0.179552     Biso  1.000000 C
   C16        1.0     0.248439      0.506634      0.183417     Biso  1.000000 C
   C17        1.0     0.838678      0.583758      0.181320     Biso  1.000000 C
   C18        1.0    -0.002342      0.756378      0.182034     Biso  1.000000 C
   C19        1.0     0.078808      0.838804      0.186148     Biso  1.000000 C
   C20        1.0     0.245453      0.749491      0.191232     Biso  1.000000 C
   C21        1.0     0.752431      0.758188      0.181453     Biso  1.000000 C
   C22        1.0     0.831731      0.845347      0.182619     Biso  1.000000 C
   N1         1.0     0.491777      0.253721      0.186732     Biso  1.000000 N
   N2         1.0     0.326908      0.587045      0.191347     Biso  1.000000 N
   N3         1.0     0.757175      0.262885      0.200130     Biso  1.000000 N
   N4         1.0     0.325759      0.828426      0.196473     Biso  1.000000 N
   N5         1.0     0.758406      0.503574      0.187185     Biso  1.000000 N
   N6         1.0     0.594418      0.835478      0.185488     Biso  1.000000 N
   O1         1.0     0.544654      0.282588      0.327699     Biso  1.000000 O
   O2         1.0     0.547449      0.555019      0.295218     Biso  1.000000 O
